units(length='cm', time='s', quantity='mol', act_energy='cal/mol')

ideal_gas(name='MMH_RFNA_mechanism',
          elements="O H C N",
          species="""H2        H         O         O2        OH
                     HO2       N         NO        NO2       NO3
                     N2        N2O       N2O4      NH        HNO
                     HONO      HNO2      HNO3      NNH       HNNO
                     H2O       H2O2      NH2       HNOH      NH2O
                     N2H2      NH3       N2H3      N2H4      C
                     CO        CO2       CN        NCO       NCN
                     NCNO      CH        HCO       HOCO      HCN
                     HNC       HOCN      HNCO      HCNO      CH2
                     CH2(S)    CH2O      H2CN      H2CNO2    CH3
                     CH3O      CH2OH     CH2NH     CH3NO     CH3NO2
                     CH3ONO    CH3ONO2   CH3NN     CH4       CH3OH
                     CH3NH     CH3NNH    CH3NNH2   CH3NNH2N  CH3NNH2O
                     CH3NHNH2  C2N2      C2H       HCCO      C2H2
                     CH2CO     HCCOH     C2H3      CH2CHO    C2H4
                     CH3CHO    C2H4O     C2H5      C2H6      CH3NNCH3""",
          reactions='all',
          initial_state=state(temperature=300.0, pressure=OneAtm))

#-------------------------------------------------------------------------------
# Species data
#-------------------------------------------------------------------------------

species(name='H2',
        atoms='H:2',
        thermo=(NASA([200.00, 1000.00],
                     [ 2.34433112E+00,  7.98052075E-03, -1.94781510E-05,
                       2.01572094E-08, -7.37611761E-12, -9.17935173E+02,
                       6.83010238E-01]),
                NASA([1000.00, 5000.00],
                     [ 3.33727920E+00, -4.94024731E-05,  4.99456778E-07,
                      -1.79566394E-10,  2.00255376E-14, -9.50158922E+02,
                      -3.20502331E+00])),
        note='TPIS78')

species(name='H',
        atoms='H:1',
        thermo=(NASA([200.00, 1000.00],
                     [ 2.50000000E+00,  7.05332819E-13, -1.99591964E-15,
                       2.30081632E-18, -9.27732332E-22,  2.54736599E+04,
                      -4.46682853E-01]),
                NASA([1000.00, 5000.00],
                     [ 2.50000001E+00, -2.30842973E-11,  1.61561948E-14,
                      -4.73515235E-18,  4.98197357E-22,  2.54736599E+04,
                      -4.46682914E-01])),
        note='L7/88')

species(name='O',
        atoms='O:1',
        thermo=(NASA([200.00, 1000.00],
                     [ 3.16826710E+00, -3.27931884E-03,  6.64306396E-06,
                      -6.12806624E-09,  2.11265971E-12,  2.91222592E+04,
                       2.05193346E+00]),
                NASA([1000.00, 5000.00],
                     [ 2.56942078E+00, -8.59741137E-05,  4.19484589E-08,
                      -1.00177799E-11,  1.22833691E-15,  2.92175791E+04,
                       4.78433864E+00])),
        note='L1/90')

species(name='O2',
        atoms='O:2',
        thermo=(NASA([200.00, 1000.00],
                     [ 3.78245636E+00, -2.99673416E-03,  9.84730201E-06,
                      -9.68129509E-09,  3.24372837E-12, -1.06394356E+03,
                       3.65767573E+00]),
                NASA([1000.00, 5000.00],
                     [ 3.28253784E+00,  1.48308754E-03, -7.57966669E-07,
                       2.09470555E-10, -2.16717794E-14, -1.08845772E+03,
                       5.45323129E+00])),
        note='TPIS89')

species(name='OH',
        atoms='O:1 H:1',
        thermo=(NASA([200.00, 1000.00],
                     [ 3.99201543E+00, -2.40131752E-03,  4.61793841E-06,
                      -3.88113333E-09,  1.36411470E-12,  3.61508056E+03,
                      -1.03925458E-01]),
                NASA([1000.00, 5000.00],
                     [ 3.09288767E+00,  5.48429716E-04,  1.26505228E-07,
                      -8.79461556E-11,  1.17412376E-14,  3.85865700E+03,
                       4.47669610E+00])),
        note='RUS78')

species(name='HO2',
        atoms='H:1 O:2',
        thermo=(NASA([200.00, 1000.00],
                     [ 4.30179801E+00, -4.74912051E-03,  2.11582891E-05,
                      -2.42763894E-08,  9.29225124E-12,  2.94808040E+02,
                       3.71666245E+00]),
                NASA([1000.00, 5000.00],
                     [ 4.01721090E+00,  2.23982013E-03, -6.33658150E-07,
                       1.14246370E-10, -1.07908535E-14,  1.11856713E+02,
                       3.78510215E+00])),
        note='L5/89')

species(name='N',
        atoms='N:1',
        thermo=(NASA([200.00, 1000.00],
                     [ 2.50000000E+00,  0.00000000E+00,  0.00000000E+00,
                       0.00000000E+00,  0.00000000E+00,  5.61046370E+04,
                       4.19390870E+00]),
                NASA([1000.00, 6000.00],
                     [ 2.41594290E+00,  1.74890650E-04, -1.19023690E-07,
                       3.02262450E-11, -2.03609820E-15,  5.61337730E+04,
                       4.64960960E+00])),
        note='L6/88')

species(name='NO',
        atoms='N:1 O:1',
        thermo=(NASA([200.00, 1000.00],
                     [ 4.21847630E+00, -4.63897600E-03,  1.10410220E-05,
                      -9.33613540E-09,  2.80357700E-12,  9.84462300E+03,
                       2.28084640E+00]),
                NASA([1000.00, 6000.00],
                     [ 3.26060560E+00,  1.19110430E-03, -4.29170480E-07,
                       6.94576690E-11, -4.03360990E-15,  9.92097460E+03,
                       6.36930270E+00])),
        note='RUS78')

species(name='NO2',
        atoms='N:1 O:2',
        thermo=(NASA([200.00, 1000.00],
                     [ 3.94403120E+00, -1.58542900E-03,  1.66578120E-05,
                      -2.04754260E-08,  7.83505640E-12,  2.89661790E+03,
                       6.31199170E+00]),
                NASA([1000.00, 6000.00],
                     [ 4.88475420E+00,  2.17239560E-03, -8.28069060E-07,
                       1.57475100E-10, -1.05108950E-14,  2.31649830E+03,
                      -1.17416950E-01])),
        note='L7/88')

species(name='NO3',
        atoms='N:1 O:3',
        thermo=(NASA([200.00, 1000.00],
                     [ 2.17359330E+00,  1.04902685E-02,  1.10472669E-05,
                      -2.81561867E-08,  1.36583960E-11,  7.81290905E+03,
                       1.46022090E+01]),
                NASA([1000.00, 6000.00],
                     [ 7.48347702E+00,  2.57772064E-03, -1.00945831E-06,
                       1.72314063E-10, -1.07154008E-14,  6.12990474E+03,
                      -1.41618136E+01])),
        note='ATcT/A')

species(name='N2',
        atoms='N:2',
        thermo=(NASA([300.00, 1000.00],
                     [ 3.29867700E+00,  1.40824040E-03, -3.96322200E-06,
                       5.64151500E-09, -2.44485400E-12, -1.02089990E+03,
                       3.95037200E+00]),
                NASA([1000.00, 5000.00],
                     [ 2.92664000E+00,  1.48797680E-03, -5.68476000E-07,
                       1.00970380E-10, -6.75335100E-15, -9.22797700E+02,
                       5.98052800E+00])),
        note='121286')

species(name='N2O',
        atoms='N:2 O:1',
        thermo=(NASA([200.00, 1000.00],
                     [ 2.25715020E+00,  1.13047280E-02, -1.36713190E-05,
                       9.68198060E-09, -2.93071820E-12,  8.74177440E+03,
                       1.07579920E+01]),
                NASA([1000.00, 6000.00],
                     [ 4.82307290E+00,  2.62702510E-03, -9.58508740E-07,
                       1.60007120E-10, -9.77523030E-15,  8.07340480E+03,
                      -2.20172070E+00])),
        note='L7/88')

species(name='N2O4',
        atoms='N:2 O:4',
        thermo=(NASA([200.00, 1000.00],
                     [ 3.02002271E+00,  2.95904359E-02, -3.01342572E-05,
                       1.42360526E-08, -2.44100411E-12, -6.79238803E+02,
                       1.18059620E+01]),
                NASA([1000.00, 6000.00],
                     [ 1.15752932E+01,  4.01615532E-03, -1.57178022E-06,
                       2.68273657E-10, -1.66921538E-14, -2.96111235E+03,
                      -3.19488625E+01])),
        note='O2NNO2ATcTA')

species(name='NH',
        atoms='N:1 H:1',
        thermo=(NASA([200.00, 1000.00],
                     [ 3.49290850E+00,  3.11791980E-04, -1.48904840E-06,
                       2.48164420E-09, -1.03569670E-12,  4.18806290E+04,
                       1.84832780E+00]),
                NASA([1000.00, 6000.00],
                     [ 2.78369280E+00,  1.32984300E-03, -4.24780470E-07,
                       7.83485010E-11, -5.50444700E-15,  4.21208480E+04,
                       5.74077990E+00])),
        note='And94')

species(name='HNO',
        atoms='H:1 N:1 O:1',
        thermo=(NASA([200.00, 1000.00],
                     [ 4.53349160E+00, -5.66961710E-03,  1.84732070E-05,
                      -1.71370940E-08,  5.54545730E-12,  1.15482970E+04,
                       1.74984170E+00]),
                NASA([1000.00, 6000.00],
                     [ 2.97925090E+00,  3.49440590E-03, -7.85497780E-07,
                       5.74795940E-11, -1.93359160E-16,  1.17505820E+04,
                       8.60637280E+00])),
        note='And93')

species(name='HONO',
        atoms='H:1 O:2 N:1',
        thermo=(NASA([200.00, 1000.00],
                     [ 8.80510000E+00,  5.75010000E-02, -5.87420000E-05,
                       3.47190000E-08, -9.36280000E-12, -4.73220000E+03,
                      -3.50035000E+01]),
                NASA([1000.00, 5000.00],
                     [ 2.17510000E+01,  1.65370000E-02, -6.44630000E-06,
                       1.15910000E-09, -7.87290000E-14, -7.17070000E+03,
                      -9.85945000E+01])),
        note='L')

species(name='HNO2',
        atoms='H:1 N:1 O:2',
        thermo=(NASA([200.00, 1000.00],
                     [ 3.21415915E+00,  8.12778066E-03,  1.65998916E-06,
                      -9.52814708E-09,  4.87131424E-12, -1.07830727E+04,
                       9.82200056E+00]),
                NASA([1000.00, 6000.00],
                     [ 5.79182717E+00,  3.65162554E-03, -1.29293390E-06,
                       2.06892796E-10, -1.23154749E-14, -1.15953895E+04,
                      -4.05538852E+00])),
        note='equilATcTT9/11')

species(name='HNO3',
        atoms='H:1 N:1 O:3',
        thermo=(NASA([200.00, 1000.00],
                     [ 1.69329154E+00,  1.90167702E-02, -8.25176697E-06,
                      -6.06113827E-09,  4.65236978E-12, -1.74198909E+04,
                       1.71839838E+01]),
                NASA([1000.00, 6000.00],
                     [ 8.03098942E+00,  4.46958589E-03, -1.72459491E-06,
                       2.91556153E-10, -1.80102702E-14, -1.93138183E+04,
                      -1.62616537E+01])),
        note='T8/03')

species(name='NNH',
        atoms='N:2 H:1',
        thermo=(NASA([200.00, 1000.00],
                     [ 4.34469270E+00, -4.84970720E-03,  2.00594590E-05,
                      -2.17264640E-08,  7.94695390E-12,  2.87919730E+04,
                       2.97794100E+00]),
                NASA([1000.00, 6000.00],
                     [ 3.76675440E+00,  2.89150820E-03, -1.04166200E-06,
                       1.68425940E-10, -1.00918960E-14,  2.86506970E+04,
                       4.47050670E+00])),
        note='T07/93')

species(name='HNNO',
        atoms='H:1 N:2 O:1',
        thermo=(NASA([200.00, 1000.00],
                     [ 1.87600000E+01, -2.76660000E-02,  1.91090000E-04,
                      -2.70420000E-07,  1.21470000E-10, -5.54300080E+03,
                      -7.45091000E+01]),
                NASA([1000.00, 5000.00],
                     [ 2.13780000E+01,  1.76800000E-02, -6.95369000E-06,
                       1.23350000E-09, -8.15520000E-14, -7.06890000E+03,
                       9.63000000E+00])),
        note='L')

species(name='H2O',
        atoms='H:2 O:1',
        thermo=(NASA([200.00, 1000.00],
                     [ 4.19864056E+00, -2.03643410E-03,  6.52040211E-06,
                      -5.48797062E-09,  1.77197817E-12, -3.02937267E+04,
                      -8.49032208E-01]),
                NASA([1000.00, 5000.00],
                     [ 3.03399249E+00,  2.17691804E-03, -1.64072518E-07,
                      -9.70419870E-11,  1.68200992E-14, -3.00042971E+04,
                       4.96677010E+00])),
        note='L8/89')

species(name='H2O2',
        atoms='H:2 O:2',
        thermo=(NASA([200.00, 1000.00],
                     [ 4.27611269E+00, -5.42822417E-04,  1.67335701E-05,
                      -2.15770813E-08,  8.62454363E-12, -1.77025821E+04,
                       3.43505074E+00]),
                NASA([1000.00, 5000.00],
                     [ 4.16500285E+00,  4.90831694E-03, -1.90139225E-06,
                       3.71185986E-10, -2.87908305E-14, -1.78617877E+04,
                       2.91615662E+00])),
        note='L7/88')

species(name='NH2',
        atoms='N:1 H:2',
        thermo=(NASA([200.00, 1000.00],
                     [ 4.20400290E+00, -2.10613850E-03,  7.10683480E-06,
                      -5.61151970E-09,  1.64407170E-12,  2.18859100E+04,
                      -1.41842480E-01]),
                NASA([1000.00, 6000.00],
                     [ 2.83474210E+00,  3.20730820E-03, -9.33908040E-07,
                       1.37029530E-10, -7.92061440E-15,  2.21719570E+04,
                       6.52041630E+00])),
        note='And89')

species(name='HNOH',
        atoms='H:2 N:1 O:1',
        thermo=(NASA([200.00, 1000.00],
                     [ 1.32780000E+01,  2.78660000E-02, -1.45450000E-05,
                       5.06170000E-09, -1.28520000E-12, -5.06440000E+03,
                      -5.42669000E+01]),
                NASA([1000.00, 5000.00],
                     [ 1.76010000E+01,  1.88820000E-02, -7.27820000E-06,
                       1.27170000E-09, -8.30550000E-14, -6.01090000E+03,
                      -7.65098000E+01])),
        note='L')

species(name='NH2O',
        atoms='N:1 H:2 O:1',
        thermo=(NASA([200.00, 1000.00],
                     [ 1.00740000E+01,  3.38590000E-02, -2.30400000E-05,
                       1.05890000E-08, -2.71520000E-12, -4.32030000E+03,
                      -3.85571000E-01]),
                NASA([1000.00, 5000.00],
                     [ 1.46450000E+01,  2.13090000E-02, -7.61400000E-06,
                       1.25360000E-09, -7.80540000E-14, -1.07210000E+04,
                      -8.90344000E+01])),
        note='L')

species(name='N2H2',
        atoms='N:2 H:2',
        thermo=(NASA([200.00, 1000.00],
                     [ 4.91066031E+00, -1.07791880E-02,  3.86516489E-05,
                      -3.86501698E-08,  1.34852134E-11,  2.28241901E+04,
                       9.10273396E-02]),
                NASA([1000.00, 6000.00],
                     [ 1.31115117E+00,  9.00187208E-03, -3.14911824E-06,
                       4.81449581E-10, -2.71897891E-14,  2.33863341E+04,
                       1.64091067E+01])),
        note='9/11')

species(name='NH3',
        atoms='N:1 H:3',
        thermo=(NASA([200.00, 1000.00],
                     [ 4.28602740E+00, -4.66052300E-03,  2.17185130E-05,
                      -2.28088870E-08,  8.26380460E-12, -6.74172850E+03,
                      -6.25372770E-01]),
                NASA([1000.00, 6000.00],
                     [ 2.63445210E+00,  5.66625600E-03, -1.72786760E-06,
                       2.38671610E-10, -1.25787860E-14, -6.54469580E+03,
                       6.56629280E+00])),
        note='J6/77')

species(name='N2H3',
        atoms='N:2 H:3',
        thermo=(NASA([200.00, 1000.00],
                     [ 6.52580000E+00,  5.79400000E-02, -4.14680000E-05,
                       1.74270000E-08, -3.54700000E-12, -4.19560000E+03,
                      -2.45243000E+01]),
                NASA([1000.00, 5000.00],
                     [ 1.69820000E+01,  3.06370000E-02, -1.17840000E-05,
                       2.05560000E-09, -1.34130000E-13, -6.29450000E+03,
                      -7.78926000E+01])),
        note='L')

species(name='N2H4',
        atoms='N:2 H:4',
        thermo=(NASA([200.00, 1000.00],
                     [ 3.83472149E+00, -6.49129555E-04,  3.76848463E-05,
                      -5.00709182E-08,  2.03362064E-11,  1.00893925E+04,
                       5.75272030E+00]),
                NASA([1000.00, 6000.00],
                     [ 4.93957357E+00,  8.75017187E-03, -2.99399058E-06,
                       4.67278418E-10, -2.73068599E-14,  9.28265548E+03,
                      -2.69439772E+00])),
        note='HYDRAZINEL5/90')

species(name='C',
        atoms='C:1',
        thermo=(NASA([200.00, 1000.00],
                     [ 2.55423955E+00, -3.21537724E-04,  7.33792245E-07,
                      -7.32234889E-10,  2.66521446E-13,  8.54438832E+04,
                       4.53130848E+00]),
                NASA([1000.00, 5000.00],
                     [ 2.49266888E+00,  4.79889284E-05, -7.24335020E-08,
                       3.74291029E-11, -4.87277893E-15,  8.54512953E+04,
                       4.80150373E+00])),
        note='L11/88')

species(name='CO',
        atoms='C:1 O:1',
        thermo=(NASA([200.00, 1000.00],
                     [ 3.57953347E+00, -6.10353680E-04,  1.01681433E-06,
                       9.07005884E-10, -9.04424499E-13, -1.43440860E+04,
                       3.50840928E+00]),
                NASA([1000.00, 5000.00],
                     [ 2.71518561E+00,  2.06252743E-03, -9.98825771E-07,
                       2.30053008E-10, -2.03647716E-14, -1.41518724E+04,
                       7.81868772E+00])),
        note='TPIS79')

species(name='CO2',
        atoms='C:1 O:2',
        thermo=(NASA([200.00, 1000.00],
                     [ 2.35677352E+00,  8.98459677E-03, -7.12356269E-06,
                       2.45919022E-09, -1.43699548E-13, -4.83719697E+04,
                       9.90105222E+00]),
                NASA([1000.00, 5000.00],
                     [ 3.85746029E+00,  4.41437026E-03, -2.21481404E-06,
                       5.23490188E-10, -4.72084164E-14, -4.87591660E+04,
                       2.27163806E+00])),
        note='L7/88')

species(name='CN',
        atoms='C:1 N:1',
        thermo=(NASA([200.00, 1000.00],
                     [ 3.61293510E+00, -9.55513270E-04,  2.14429770E-06,
                      -3.15163230E-10, -4.64303560E-13,  5.17083400E+04,
                       3.98049950E+00]),
                NASA([1000.00, 6000.00],
                     [ 3.74598050E+00,  4.34507750E-05,  2.97059840E-07,
                      -6.86518060E-11,  4.41341730E-15,  5.15361880E+04,
                       2.78676010E+00])),
        note='HBH92')

species(name='NCO',
        atoms='N:1 C:1 O:1',
        thermo=(NASA([200.00, 1000.00],
                     [ 2.82693080E+00,  8.80516880E-03, -8.38661340E-06,
                       4.80169640E-09, -1.33135950E-12,  1.46824770E+04,
                       9.55046460E+00]),
                NASA([1000.00, 6000.00],
                     [ 5.15218450E+00,  2.30517610E-03, -8.80331530E-07,
                       1.47890980E-10, -9.09779960E-15,  1.40041230E+04,
                      -2.54426600E+00])),
        note='EA93')

species(name='NCN',
        atoms='C:1 N:2',
        thermo=(NASA([200.00, 1000.00],
                     [ 2.79807977E+00,  1.00008683E-02, -9.59229469E-06,
                       4.75546842E-09, -1.04340146E-12,  5.24021705E+04,
                       8.62129767E+00]),
                NASA([1000.00, 6000.00],
                     [ 5.68744173E+00,  1.82662756E-03, -7.07546249E-07,
                       1.19515592E-10, -7.31827071E-15,  5.15901177E+04,
                      -6.31954433E+00])),
        note='MethaneTetrT5/14')

species(name='NCNO',
        atoms='N:2 C:1 O:1',
        thermo=(NASA([200.00, 1000.00],
                     [ 1.92000000E+01,  2.33540000E-02, -5.00020000E-06,
                      -1.57901000E-09, -1.06550000E-12, -6.67160000E+03,
                      -8.39930000E+01]),
                NASA([1000.00, 5000.00],
                     [-5.88680000E+00,  7.99100000E-02, -5.27720000E-05,
                       1.48220000E-08, -1.48310000E-12, -1.31760000E+03,
                       4.40525000E+01])),
        note='L')

species(name='CH',
        atoms='C:1 H:1',
        thermo=(NASA([200.00, 1000.00],
                     [ 3.48981665E+00,  3.23835541E-04, -1.68899065E-06,
                       3.16217327E-09, -1.40609067E-12,  7.07972934E+04,
                       2.08401108E+00]),
                NASA([1000.00, 5000.00],
                     [ 2.87846473E+00,  9.70913681E-04,  1.44445655E-07,
                      -1.30687849E-10,  1.76079383E-14,  7.10124364E+04,
                       5.48497999E+00])),
        note='TPIS79')

species(name='HCO',
        atoms='H:1 C:1 O:1',
        thermo=(NASA([200.00, 1000.00],
                     [ 4.22118584E+00, -3.24392532E-03,  1.37799446E-05,
                      -1.33144093E-08,  4.33768865E-12,  3.83956496E+03,
                       3.39437243E+00]),
                NASA([1000.00, 5000.00],
                     [ 2.77217438E+00,  4.95695526E-03, -2.48445613E-06,
                       5.89161778E-10, -5.33508711E-14,  4.01191815E+03,
                       9.79834492E+00])),
        note='L12/89')

species(name='HOCO',
        atoms='H:1 O:2 C:1',
        thermo=(NASA([200.00, 1000.00],
                     [ 9.19650000E+00,  5.22760000E-02, -4.33520000E-05,
                       1.76800000E-08, -2.85990000E-12, -4.73610000E+03,
                      -3.59555000E+01]),
                NASA([1000.00, 5000.00],
                     [-7.19860000E+00,  7.83530000E-02, -5.13810000E-05,
                       1.43440000E-08, -1.42870000E-12, -9.31498100E+02,
                       5.06110000E+01])),
        note='L')

species(name='HCN',
        atoms='H:1 C:1 N:1',
        thermo=(NASA([200.00, 1000.00],
                     [ 2.25898860E+00,  1.00511700E-02, -1.33517630E-05,
                       1.00923490E-08, -3.00890280E-12,  1.47126330E+04,
                       8.91644190E+00]),
                NASA([1000.00, 6000.00],
                     [ 3.80223920E+00,  3.14642280E-03, -1.06321850E-06,
                       1.66197570E-10, -9.79975700E-15,  1.44072920E+04,
                       1.57546010E+00])),
        note='GRI/98')

species(name='HNC',
        atoms='H:1 N:1 C:1',
        thermo=(NASA([200.00, 1000.00],
                     [ 2.30186822E+00,  1.54157449E-02, -3.13261898E-05,
                       3.08816218E-08, -1.11912204E-11,  2.19306327E+04,
                       8.14749128E+00]),
                NASA([1000.00, 6000.00],
                     [ 4.22248262E+00,  2.59458082E-03, -8.58480324E-07,
                       1.30744940E-10, -7.50339813E-15,  2.17156730E+04,
                      -7.79706410E-02])),
        note='ATcT/A')

species(name='HOCN',
        atoms='H:1 N:1 C:1 O:1',
        thermo=(NASA([300.00, 1368.00],
                     [ 3.78604952E+00,  6.88667922E-03, -3.21487864E-06,
                       5.17195767E-10,  1.19360788E-14, -2.82698400E+03,
                       5.63292162E+00]),
                NASA([1368.00, 5000.00],
                     [ 5.89784885E+00,  3.16789393E-03, -1.11801064E-06,
                       1.77243144E-10, -1.04339177E-14, -3.70653331E+03,
                      -6.18167825E+00])),
        note='BDEA94')

species(name='HNCO',
        atoms='H:1 N:1 C:1 O:1',
        thermo=(NASA([300.00, 1478.00],
                     [ 3.63096317E+00,  7.30282357E-03, -2.28050003E-06,
                      -6.61271298E-10,  3.62235752E-13, -1.55873636E+04,
                       6.19457727E+00]),
                NASA([1478.00, 5000.00],
                     [ 6.22395134E+00,  3.17864004E-03, -1.09378755E-06,
                       1.70735163E-10, -9.95021955E-15, -1.66599344E+04,
                      -8.38224741E+00])),
        note='BDEA94')

species(name='HCNO',
        atoms='H:1 N:1 C:1 O:1',
        thermo=(NASA([300.00, 1382.00],
                     [ 2.64727989E+00,  1.27505342E-02, -1.04794236E-05,
                       4.41432836E-09, -7.57521466E-13,  1.92990252E+04,
                       1.07332972E+01]),
                NASA([1382.00, 5000.00],
                     [ 6.59860456E+00,  3.02778626E-03, -1.07704346E-06,
                       1.71666528E-10, -1.01439391E-14,  1.79661339E+04,
                      -1.03306599E+01])),
        note='BDEA94')

species(name='CH2',
        atoms='C:1 H:2',
        thermo=(NASA([200.00, 1000.00],
                     [ 3.76267867E+00,  9.68872143E-04,  2.79489841E-06,
                      -3.85091153E-09,  1.68741719E-12,  4.60040401E+04,
                       1.56253185E+00]),
                NASA([1000.00, 5000.00],
                     [ 2.87410113E+00,  3.65639292E-03, -1.40894597E-06,
                       2.60179549E-10, -1.87727567E-14,  4.62636040E+04,
                       6.17119324E+00])),
        note='LS/93')

species(name='CH2(S)',
        atoms='C:1 H:2',
        thermo=(NASA([200.00, 1000.00],
                     [ 4.19860411E+00, -2.36661419E-03,  8.23296220E-06,
                      -6.68815981E-09,  1.94314737E-12,  5.04968163E+04,
                      -7.69118967E-01]),
                NASA([1000.00, 5000.00],
                     [ 2.29203842E+00,  4.65588637E-03, -2.01191947E-06,
                       4.17906000E-10, -3.39716365E-14,  5.09259997E+04,
                       8.62650169E+00])),
        note='LS/93')

species(name='CH2O',
        atoms='H:2 C:1 O:1',
        thermo=(NASA([200.00, 1000.00],
                     [ 4.79372315E+00, -9.90833369E-03,  3.73220008E-05,
                      -3.79285261E-08,  1.31772652E-11, -1.43089567E+04,
                       6.02812900E-01]),
                NASA([1000.00, 5000.00],
                     [ 1.76069008E+00,  9.20000082E-03, -4.42258813E-06,
                       1.00641212E-09, -8.83855640E-14, -1.39958323E+04,
                       1.36563230E+01])),
        note='L8/88')

species(name='H2CN',
        atoms='H:2 C:1 N:1',
        thermo=(NASA([300.00, 1000.00],
                     [ 2.85166100E+00,  5.69523310E-03,  1.07114000E-06,
                      -1.62261200E-09, -2.35110810E-13,  2.86378200E+04,
                       8.99275110E+00]),
                NASA([1000.00, 4000.00],
                     [ 5.20970300E+00,  2.96929110E-03, -2.85558910E-07,
                      -1.63555000E-10,  3.04325890E-14,  2.76771090E+04,
                      -4.44447800E+00])),
        note='41687')

species(name='H2CNO2',
        atoms='H:2 C:1 N:1 O:2',
        thermo=(NASA([200.00, 1000.00],
                     [ 4.33920000E+00,  1.16400000E-01, -1.17680000E-04,
                       6.23050000E-08, -1.38510000E-11, -5.52140000E+03,
                      -2.17121000E+01]),
                NASA([1000.00, 5000.00],
                     [-1.63610000E+01,  1.31010000E-01, -8.47320000E-05,
                       2.35120000E-08, -2.33470000E-12, -4.65290000E+04,
                      -1.16475000E+02])),
        note='L')

species(name='CH3',
        atoms='C:1 H:3',
        thermo=(NASA([200.00, 1000.00],
                     [ 3.67359040E+00,  2.01095175E-03,  5.73021856E-06,
                      -6.87117425E-09,  2.54385734E-12,  1.64449988E+04,
                       1.60456433E+00]),
                NASA([1000.00, 5000.00],
                     [ 2.28571772E+00,  7.23990037E-03, -2.98714348E-06,
                       5.95684644E-10, -4.67154394E-14,  1.67755843E+04,
                       8.48007179E+00])),
        note='L11/89')

species(name='CH3O',
        atoms='C:1 H:3 O:1',
        thermo=(NASA([300.00, 1000.00],
                     [ 2.10620400E+00,  7.21659500E-03,  5.33847200E-06,
                      -7.37763600E-09,  2.07561000E-12,  9.78601100E+02,
                       1.31521770E+01]),
                NASA([1000.00, 3000.00],
                     [ 3.77079900E+00,  7.87149700E-03, -2.65638400E-06,
                       3.94443100E-10, -2.11261600E-14,  1.27832520E+02,
                       2.92957500E+00])),
        note='121686')

species(name='CH2OH',
        atoms='C:1 H:3 O:1',
        thermo=(NASA([200.00, 1000.00],
                     [ 3.86388918E+00,  5.59672304E-03,  5.93271791E-06,
                      -1.04532012E-08,  4.36967278E-12, -3.19391367E+03,
                       5.47302243E+00]),
                NASA([1000.00, 5000.00],
                     [ 3.69266569E+00,  8.64576797E-03, -3.75101120E-06,
                       7.87234636E-10, -6.48554201E-14, -3.24250627E+03,
                       5.81043215E+00])),
        note='GUNL93')

species(name='CH2NH',
        atoms='C:1 H:3 N:1',
        thermo=(NASA([200.00, 1000.00],
                     [ 1.14590000E+01,  1.79500000E-02,  3.08080000E-05,
                      -3.19630000E-08,  8.75770000E-12, -4.47800000E+03,
                      -4.39159000E+01]),
                NASA([1000.00, 5000.00],
                     [ 1.15710000E+01,  3.76280000E-02, -1.45320000E-05,
                       2.54870000E-09, -1.67250000E-13, -4.98470000E+03,
                      -4.83673000E+01])),